
     RDKit          3D

 47 50  0  0  0  0  0  0  0  0999 V2000
    5.9189   -1.1886   -1.0624 C   0  0  0  0  0  0  0  0  0  0  0  0
    5.8604   -1.3319    0.4201 C   0  0  0  0  0  0  0  0  0  0  0  0
    6.8268   -0.6792    1.1881 C   0  0  0  0  0  0  0  0  0  0  0  0
    6.7971   -0.7952    2.5713 C   0  0  0  0  0  0  0  0  0  0  0  0
    7.7157   -0.1558    3.3091 F   0  0  0  0  0  0  0  0  0  0  0  0
    5.8319   -1.5731    3.1984 C   0  0  0  0  0  0  0  0  0  0  0  0
    4.8625   -2.2346    2.4377 C   0  0  0  0  0  0  0  0  0  0  0  0
    3.9079   -3.1153    3.1697 C   0  0  0  0  0  0  0  0  0  0  0  0
    4.8607   -2.0901    1.0437 C   0  0  0  0  0  0  0  0  0  0  0  0
    3.9560   -2.7011    0.2152 O   0  0  0  0  0  0  0  0  0  0  0  0
    2.6276   -2.4940    0.6673 C   0  0  0  0  0  0  0  0  0  0  0  0
    2.0120   -1.1660    0.2599 C   0  0  0  0  0  0  0  0  0  0  0  0
    1.3546   -0.4792    1.0390 O   0  0  0  0  0  0  0  0  0  0  0  0
    2.2464   -0.8318   -1.0543 N   0  0  0  0  0  0  0  0  0  0  0  0
    1.7928    0.3962   -1.6628 C   0  0  2  0  0  0  0  0  0  0  0  0
    2.1841    1.6513   -0.9088 C   0  0  0  0  0  0  0  0  0  0  0  0
    3.5952    2.0609   -1.1666 C   0  0  0  0  0  0  0  0  0  0  0  0
    4.4626    2.2251   -0.0864 C   0  0  0  0  0  0  0  0  0  0  0  0
    5.7769    2.6332   -0.2989 C   0  0  0  0  0  0  0  0  0  0  0  0
    6.2252    2.8874   -1.5924 C   0  0  0  0  0  0  0  0  0  0  0  0
    5.3620    2.7317   -2.6733 C   0  0  0  0  0  0  0  0  0  0  0  0
    4.0466    2.3251   -2.4602 C   0  0  0  0  0  0  0  0  0  0  0  0
    0.3412    0.3707   -2.0889 C   0  0  2  0  0  0  0  0  0  0  0  0
    0.0792    1.4563   -2.9638 O   0  0  0  0  0  0  0  0  0  0  0  0
   -0.6375    0.4060   -0.9366 C   0  0  0  0  0  0  0  0  0  0  0  0
   -2.0777    0.3838   -1.3893 C   0  0  1  0  0  0  0  0  0  0  0  0
   -2.4627   -0.8198   -2.2361 C   0  0  0  0  0  0  0  0  0  0  0  0
   -2.1970   -2.1585   -1.6298 C   0  0  0  0  0  0  0  0  0  0  0  0
   -3.2238   -2.8496   -0.9891 C   0  0  0  0  0  0  0  0  0  0  0  0
   -2.9920   -4.1177   -0.4600 C   0  0  0  0  0  0  0  0  0  0  0  0
   -1.7366   -4.7051   -0.5794 C   0  0  0  0  0  0  0  0  0  0  0  0
   -0.7119   -4.0267   -1.2311 C   0  0  0  0  0  0  0  0  0  0  0  0
   -0.9451   -2.7609   -1.7640 C   0  0  0  0  0  0  0  0  0  0  0  0
   -2.9602    0.6059   -0.2754 N   0  0  0  0  0  0  0  0  0  0  0  0
   -4.2404    1.0815   -0.4811 C   0  0  0  0  0  0  0  0  0  0  0  0
   -4.6883    1.3609   -1.5906 O   0  0  0  0  0  0  0  0  0  0  0  0
   -5.0033    1.2705    0.8293 C   0  0  2  0  0  0  0  0  0  0  0  0
   -5.2019    0.0780    1.7351 C   0  0  0  0  0  0  0  0  0  0  0  0
   -5.4564   -1.2205    1.0112 C   0  0  0  0  0  0  0  0  0  0  0  0
   -4.0529   -0.0738    2.7006 C   0  0  0  0  0  0  0  0  0  0  0  0
   -6.1022    2.2065    0.7929 N   0  0  0  0  0  0  0  0  0  0  0  0
   -5.7489    3.5951    0.9575 C   0  0  0  0  0  0  0  0  0  0  0  0
   -6.9268    4.4072    1.4306 C   0  0  0  0  0  0  0  0  0  0  0  0
   -8.0402    4.1987    0.4366 C   0  0  0  0  0  0  0  0  0  0  0  0
   -8.2868    2.7983    0.2190 N   0  0  0  0  0  0  0  0  0  0  0  0
   -7.3423    1.8041    0.3327 C   0  0  0  0  0  0  0  0  0  0  0  0
   -7.6091    0.6339    0.0646 O   0  0  0  0  0  0  0  0  0  0  0  0
  1  2  1  0
  2  3  2  0
  3  4  1  0
  4  5  1  0
  4  6  2  0
  6  7  1  0
  7  8  1  0
  7  9  2  0
  9 10  1  0
 10 11  1  0
 11 12  1  0
 12 13  2  0
 12 14  1  0
 14 15  1  0
 15 16  1  1
 16 17  1  0
 17 18  2  0
 18 19  1  0
 19 20  2  0
 20 21  1  0
 21 22  2  0
 15 23  1  0
 23 24  1  6
 23 25  1  0
 26 25  1  1
 26 27  1  0
 27 28  1  0
 28 29  2  0
 29 30  1  0
 30 31  2  0
 31 32  1  0
 32 33  2  0
 26 34  1  0
 34 35  1  0
 35 36  2  0
 37 35  1  1
 37 38  1  0
 38 39  1  0
 38 40  1  0
 37 41  1  0
 41 42  1  0
 42 43  1  0
 43 44  1  0
 44 45  1  0
 45 46  1  0
 46 47  2  0
  9  2  1  0
 22 17  1  0
 33 28  1  0
 46 41  1  0
M  END
